%SUPERSONIC (Mach>1)

SOLVER= RANS
KIND_TURB_MODEL= SST
SST_OPTIONS= V1994m
MATH_PROBLEM= DIRECT
RESTART_SOL= NO

% ------------- FREESTREAM ------------%
REF_DIMENSIONALIZATION= DIMENSIONAL
MACH_NUMBER= 1.86
AOA= 1.0
FREESTREAM_TEMPERATURE= 293.0
FREESTREAM_PRESSURE= 101325.0
REYNOLDS_NUMBER= 35189189.19
REYNOLDS_LENGTH= 1.0

% ------------- REFERENCE VALUES ------------%
REF_ORIGIN_MOMENT_X= 0.25
REF_ORIGIN_MOMENT_Y= 0.00
REF_ORIGIN_MOMENT_Z= 0.00
REF_LENGTH= 1.0
REF_AREA= 1.0

% ------------- BOUNDARY CONDITIONS ------------%
MARKER_HEATFLUX= ( Airfoil, 0.0 )
MARKER_FAR= ( Inlet, Outlet )
MARKER_PLOTTING= ( Airfoil )
MARKER_MONITORING= ( Airfoil )

% ------------- NUMERICAL METHOD ------------%
NUM_METHOD_GRAD= WEIGHTED_LEAST_SQUARES  

CONV_NUM_METHOD_FLOW= ROE
MUSCL_FLOW= YES                         
SLOPE_LIMITER_FLOW= VENKATAKRISHNAN

CONV_NUM_METHOD_TURB= SCALAR_UPWIND
MUSCL_TURB= NO

TIME_DISCRE_FLOW= EULER_IMPLICIT
TIME_DISCRE_TURB= EULER_IMPLICIT

% ------------- CFL FOR HYBRID + SST ------------%
CFL_NUMBER= 0.5                        
CFL_ADAPT= YES
CFL_ADAPT_PARAM= ( 0.5, 1.1, 0.5, 15.0 )


% ------------- LINEAR SOLVER ------------%
LINEAR_SOLVER= FGMRES
LINEAR_SOLVER_PREC= ILU
LINEAR_SOLVER_ERROR= 1e-4
LINEAR_SOLVER_ITER= 15

% ------------- NO MULTIGRID (problematic for hybrid) ------------%
MGLEVEL= 0

% ------------- CONVERGENCE ------------%
ITER= 3000                              
CONV_FIELD= RMS_DENSITY, RMS_TKE
CONV_RESIDUAL_MINVAL= -6
CONV_STARTITER= 25

% ------------- OUTPUT ------------%
MESH_FILENAME= airfoil.su2       
TABULAR_FORMAT= CSV
CONV_FILENAME= history_hybrid_SST
RESTART_FILENAME= restart_hybrid_SST.dat
VOLUME_FILENAME= flow_hybrid_SST
SURFACE_FILENAME= surface_hybrid_SST
OUTPUT_FILES= (RESTART, PARAVIEW, SURFACE_CSV)
SCREEN_OUTPUT= (INNER_ITER, RMS_DENSITY, RMS_TKE, RMS_DISSIPATION, LIFT, DRAG)
HISTORY_OUTPUT= (ITER, RMS_RES, AERO_COEFF, AOA)
